electric-grid/smallsignal/brazil-7bus/PSLF/Brazilian_7_bus_Equiv_Model.epc
title
IEEE BENCHMARK SYSTEM
BRAZILIAN 7-BUS EQUIVALENT SYSTEM
!
comments
!
solution parameters
tap    1    tcul  enabled/disabled
phas   1    ps    enabled/disabled
area   1    area  enabled/disabled
svd    1    svd   enabled/disabled
dctap  1    dc    enabled/disabled
gcd    0    gcd   enabled/disabled
jump  0.000200    jumper threshold
toler   1.0000    newton tolerance
sbase 1000.0000    system mva base
!
bus data  [7]               ty  vsched   volt     angle    ar zone  vmax   vmin   date_in date_out pid L own st  latitude  longitude island    sdmon   vmax1      vmin1      dvmax
      1 "FOZ AREIA   " 500.0000 :  2 1.03000 1.030022  24.52753   1    1 1.1000 0.9000   400101   391231   0 0   1 0    0.00000    0.00000 0    0.00000    0.00000    0.00000
      2 "S. SANTIAGO " 500.0000 :  2 1.03000 1.029971  27.22332   1    1 1.1000 0.9000   400101   391231   0 0   1 0    0.00000    0.00000 0    0.00000    0.00000    0.00000
      3 "S. SEGREDO  " 500.0000 :  2 1.02900 1.028980  26.60298   1    1 1.1000 0.9000   400101   391231   0 0   1 0    0.00000    0.00000 0    0.00000    0.00000    0.00000
      4 "ITAIPU      " 765.0000 :  2 1.03900 1.039005  48.45044   2    1 1.1000 0.9000   400101   391231   0 0   1 0    0.00000    0.00000 0    0.00000    0.00000    0.00000
      5 "IVAIPORA    " 500.0000 :  1 0.998360 0.998360  21.20071   1    1 1.1000 0.9000   400101   391231   0 0   1 0    0.00000    0.00000 0    0.00000    0.00000    0.00000
      6 "IVAIPORA    " 765.0000 :  1 0.989492 0.989492  21.44784   2    1 1.1000 0.9000   400101   391231   0 0   1 0    0.00000    0.00000 0    0.00000    0.00000    0.00000
      7 "EQUIVALENT  " 765.0000 :  0 0.96600 0.966000   0.00000   3    1 1.1000 0.9000   400101   391231   0 0   1 0    0.00000    0.00000 0    0.00000    0.00000    0.00000
branch data  [    6]                                          ck  se  ------------long_id_------------    st resist   react   charge   rate1  rate2  rate3  rate4 aloss  lngth 
      1 "FOZ AREIA   " 500.00       3 "S. SEGREDO  " 500.00  "1 "  1 "                                " :  1  0.003000  0.038000  0.000000 10000.0    0.0    0.0    0.0 0.000    0.0 /
   1    1  0.000000  0.000000  1.000000   400101   391231   0 1  0    0.0    0.0    0.0    0.0   1 1.000   0 0.000   0 0.000   0 0.000   0 0.000   0 0.000   0 0.000   0 0.000  0 0 
      1 "FOZ AREIA   " 500.00       5 "IVAIPORA    " 500.00  "1 "  1 "                                " :  1  0.019000  0.245000  0.000000 10000.0    0.0    0.0    0.0 1.000    0.0 /
   1    1  0.000000  0.000000  1.000000   400101   391231   0 1  0    0.0    0.0    0.0    0.0   1 1.000   0 0.000   0 0.000   0 0.000   0 0.000   0 0.000   0 0.000   0 0.000  0 0 
      2 "S. SANTIAGO " 500.00       3 "S. SEGREDO  " 500.00  "1 "  1 "                                " :  1  0.005000  0.076000  0.000000 10000.0    0.0    0.0    0.0 0.000    0.0 /
   1    1  0.000000  0.000000  1.000000   400101   391231   0 1  0    0.0    0.0    0.0    0.0   1 1.000   0 0.000   0 0.000   0 0.000   0 0.000   0 0.000   0 0.000   0 0.000  0 0 
      2 "S. SANTIAGO " 500.00       5 "IVAIPORA    " 500.00  "1 "  1 "                                " :  1  0.015000  0.225000  0.000000 10000.0    0.0    0.0    0.0 1.000    0.0 /
   1    1  0.000000  0.000000  1.000000   400101   391231   0 1  0    0.0    0.0    0.0    0.0   1 1.000   0 0.000   0 0.000   0 0.000   0 0.000   0 0.000   0 0.000   0 0.000  0 0 
      4 "ITAIPU      " 765.00       6 "IVAIPORA    " 765.00  "1 "  1 "                                " :  1  0.002900  0.073400  0.000000 10000.0    0.0    0.0    0.0 0.000    0.0 /
   2    1  0.000000  0.000000  1.000000   400101   391231   0 1  0    0.0    0.0    0.0    0.0   1 1.000   0 0.000   0 0.000   0 0.000   0 0.000   0 0.000   0 0.000   0 0.000  0 0 
      6 "IVAIPORA    " 765.00       7 "EQUIVALENT  " 765.00  "1 "  1 "                                " :  1  0.004000  0.057000  0.000000 10000.0    0.0    0.0    0.0 0.000    0.0 /
   3    1  0.000000  0.000000  1.000000   400101   391231   0 1  0    0.0    0.0    0.0    0.0   1 1.000   0 0.000   0 0.000   0 0.000   0 0.000   0 0.000   0 0.000   0 0.000  0 0 
transformer data  [   1]                                     ck   ------------long_id_------------     st ty --no---    reg_name          zt         int                              tert                   ar zone  tbase   ps_r    ps_x    pt_r    pt_x    ts_r    ts_x
      6 "IVAIPORA    " 765.00       5 "IVAIPORA    " 500.00  "1 " "                                " :  1  1       0 "            "   0.00  0       0 "            "   0.00       0 "            "   0.00    1    1 1000.000000 0.000000E+000 3.900000E-002 0.000000E+000 0.000000E+000 0.000000E+000 0.000000E+000 /
 765.000000 500.000000  0.000000  0.000000 0.000000E+000 0.000000E+000 10000.0    0.0    0.0    0.0 0.000  1.100000  0.900000  1.100000  0.900000 -0.006250  1.000000  1.000000  1.000000  1.000000   400101   391231   0 1     0.0    0.0    0.0    0.0 /
   1 1.000   0 0.000   0 0.000   0 0.000   0 0.000   0 0.000   0 0.000   0 0.000  0 /
   0.000000   0.000000  0.000000  0.000000     0.0    0.0    0.0     0.0    0.0    0.0 0.000 0.000  0  0  0 0.0000 0.0000 0 
generator data  [   5]         id   ------------long_id_------------    st ---no--     reg_name           prf  qrf  ar zone   pgen   pmax   pmin   qgen   qmax   qmin   mbase  cmp_r cmp_x gen_r gen_x           hbus                         tbus                date_in date_out pid N
      1 "FOZ AREIA   " 500.00 "1 " "                                " :  1       1 "FOZ AREIA   " 500.00  1.000000  1.000000   1    1 1657.999992 1899.999976   0.000000 -411.062896 1139.999986 -1139.999986 1900.0000 0.000 0.000 0.000 0.200      -1 "            "   0.00      -1 "            "   0.00    400101   391231   0 0 /
 0.0000 0.0000 1.0000    1 1.000   0 0.000   0 0.000   0 0.000   0 0.000   0 0.000   0 0.000   0 0.000   0   0   0   0   0   0   0    0.0 0 0  1.000000
      2 "S. SANTIAGO " 500.00 "1 " "                                " :  1       2 "S. SANTIAGO " 500.00  1.000000  1.000000   1    1 1332.000017 1399.999976   0.000000 -200.534403 839.999974 -839.999974 1400.0000 0.000 0.000 0.000 0.200      -1 "            "   0.00      -1 "            "   0.00    400101   391231   0 0 /
 0.0000 0.0000 1.0000    1 1.000   0 0.000   0 0.000   0 0.000   0 0.000   0 0.000   0 0.000   0 0.000   0   0   0   0   0   0   0    0.0 0 0  1.000000
      3 "S. SEGREDO  " 500.00 "1 " "                                " :  1       3 "S. SEGREDO  " 500.00  1.000000  1.000000   1    1 1539.999962 1944.000006   0.000000 -447.655171 1166.000009 -1166.000009 1944.0000 0.000 0.000 0.000 0.200      -1 "            "   0.00      -1 "            "   0.00    400101   391231   0 0 /
 0.0000 0.0000 1.0000    1 1.000   0 0.000   0 0.000   0 0.000   0 0.000   0 0.000   0 0.000   0 0.000   0   0   0   0   0   0   0    0.0 0 0  1.000000
      4 "ITAIPU      " 765.00 "1 " "                                " :  1       4 "ITAIPU      " 765.00  1.000000  1.000000   2    1 6500.000000 6632.999897   0.000000 1958.025694 3980.000019 -3980.000019 6633.0000 0.000 0.000 0.000 0.240      -1 "            "   0.00      -1 "            "   0.00    400101   391231   0 0 /
 0.0000 0.0000 1.0000    1 1.000   0 0.000   0 0.000   0 0.000   0 0.000   0 0.000   0 0.000   0 0.000   0   0   0   0   0   0   0    0.0 0 0  1.000000
      7 "EQUIVALENT  " 765.00 "1 " "                                " :  1       7 "EQUIVALENT  " 765.00  1.000000  1.000000   3    1 -3164.420605 3000.000000 -5000.000000 952.384830 3599.999905 -3599.999905 6000.0000 0.000 0.000 0.000 0.250      -1 "            "   0.00      -1 "            "   0.00    400101   391231   0 0 /
 0.0000 0.0000 1.0000    1 1.000   0 0.000   0 0.000   0 0.000   0 0.000   0 0.000   0 0.000   0 0.000   0   0   0   0   0   0   0    0.0 0 0  1.000000
load data  [   8]             id   ------------long_id_------------     st      mw      mvar    mw_i    mvar_i  mw_z      mvar_z  ar zone  date_in date_out pid N own M nonc  thr_bus flg
      1 "FOZ AREIA   " 500.00 "1 " "                                "  :  1 2404.999971 -467.000008 0.000000 0.000000 0.000000 0.000000   2    1   400101   391231   0 0   1 0    0       0 "            "   0.00   0
      2 "S. SANTIAGO " 500.00 "1 " "                                "  :  1 692.299962 -184.000000 0.000000 0.000000 0.000000 0.000000   2    1   400101   391231   0 0   1 0    0       0 "            "   0.00   0
      3 "S. SEGREDO  " 500.00 "1 " "                                "  :  1 688.199997 -234.999999 0.000000 0.000000 0.000000 0.000000   2    1   400101   391231   0 0   1 0    0       0 "            "   0.00   0
      4 "ITAIPU      " 765.00 "1 " "                                "  :  1 62.600002 24.300000 0.000000 0.000000 0.000000 0.000000   1    1   400101   391231   0 0   1 0    0       0 "            "   0.00   0
      5 "IVAIPORA    " 500.00 "1 " "                                "  :  1 845.799983 -9.200000 0.000000 0.000000 0.000000 0.000000   2    1   400101   391231   0 0   1 0    0       0 "            "   0.00   0
      6 "IVAIPORA    " 765.00 "1 " "                                "  :  1 -4.900000 79.800002 0.000000 0.000000 0.000000 0.000000   1    1   400101   391231   0 0   1 0    0       0 "            "   0.00   0
      6 "IVAIPORA    " 765.00 "2 " "                                "  :  0 0.000000 500.000000 0.000000 0.000000 0.000000 0.000000   2    1   400101   391231   0 0   1 0    0       0 "            "   0.00   0
      7 "EQUIVALENT  " 765.00 "1 " "                                "  :  1 2884.000063 -195.999995 0.000000 0.000000 0.000000 0.000000   2    1   400101   391231   0 0   1 0    0       0 "            "   0.00   0
shunt data  [   7]             id                                 ck  se  ------------long_id_------------     st ar  zone    pu_mw  pu_mvar  date_in date_out pid N own part1 own part2 own part3 own part4 --num-- ----name----  --kv-- M --num--  ----name----  --kv--  ID  st
      1 "FOZ AREIA   " 500.00 "1 "       0 "            "   0.00 "  "  0 "                                "  :  1   1    1 0.000000 0.179200   400101   391231   0 0    1 1.000   0 0.000   0 0.000   0 0.000      0 "            "   0.00 "  "  0 0
      2 "S. SANTIAGO " 500.00 "1 "       0 "            "   0.00 "  "  0 "                                "  :  1   1    1 0.000000 0.149100   400101   391231   0 0    1 1.000   0 0.000   0 0.000   0 0.000      0 "            "   0.00 "  "  0 0
      3 "S. SEGREDO  " 500.00 "1 "       0 "            "   0.00 "  "  0 "                                "  :  1   1    1 0.000000 0.114200   400101   391231   0 0    1 1.000   0 0.000   0 0.000   0 0.000      0 "            "   0.00 "  "  0 0
      4 "ITAIPU      " 765.00 "1 "       0 "            "   0.00 "  "  0 "                                "  :  1   2    1 0.000000 0.036800   400101   391231   0 0    1 1.000   0 0.000   0 0.000   0 0.000      0 "            "   0.00 "  "  0 0
      5 "IVAIPORA    " 500.00 "1 "       0 "            "   0.00 "  "  0 "                                "  :  1   1    1 0.000000 0.033000   400101   391231   0 0    1 1.000   0 0.000   0 0.000   0 0.000      0 "            "   0.00 "  "  0 0
      6 "IVAIPORA    " 765.00 "1 "       0 "            "   0.00 "  "  0 "                                "  :  1   2    1 0.000000 2.142000   400101   391231   0 0    1 1.000   0 0.000   0 0.000   0 0.000      0 "            "   0.00 "  "  0 0
      7 "EQUIVALENT  " 765.00 "1 "       0 "            "   0.00 "  "  0 "                                "  :  1   3    1 0.000000 0.042000   400101   391231   0 0    1 1.000   0 0.000   0 0.000   0 0.000      0 "            "   0.00 "  "  0 0
svd data  [   0]               id   ------------long_id_------------    st ty --no---     reg_name           ar zone      g      b  min_c  max_c  vband   bmin   bmax  date_in date_out pid N own part1 own part2 own part3 own part4 M st
area data  [  3]                            swing  desired    tol      pnet     qnet
    1 "500 KV                          "       1    0.000   10.000 4464.269 -774.553 0
    2 "765 KV                          "       4    0.000   10.000 -1137.085 2103.744 0
    3 "EQUIV                           "       7    0.000   10.000 -3327.282 -1329.195 0
zone data  [   1]                            pnet     qnet
    1 "1                               "   -0.098   -0.004 0
interface data  [   0]                      pnet     qnet   -rate1- -rate2- -rate3- -rate4- -rate5- -rate6- -rate7- -rate8-
interface branch data  [    0]                              ck      -i_no-  part_fac  
dc bus data  [ 0]             ty ar  zone   vsched     dc_volt  date_in date_out pid own
dc converter data  [ 0]                               id   long_id_    st ty md nb fg  --no---           reg   ar zone  date_in date_out
z table data  [ 0]  -tap2 fact2 -tap3 fact3 -tap4 fact4 -tap5 fact5 -tap6 fact6 -tap7 fact7 -tap8 fact8 -tap9 fact9 tap10 fac10 tap11 fac11
gcd data  [   0]
transaction data  [    0]              st    sch_mw   sch_mvar  flag stn pid         transaction name
owner data  [    1]    owner name           s name       net_mw   net_mvar     sch_mw   sch_mvar  ar
       1 "1                               " "    " :     0.000      0.000      0.000      0.000   0 0 


qtable data     [   0]   id     p[0]   qmx[0]  qmn[0]  ....
end
